Version 4
SHEET 1 2168 2172
WIRE 1920 576 1312 576
WIRE 2096 576 1920 576
WIRE 1312 608 1312 576
WIRE 1520 656 1376 656
WIRE 1744 656 1520 656
WIRE 704 672 464 672
WIRE 1920 688 1920 576
WIRE 2096 688 2096 576
WIRE 368 704 208 704
WIRE 1312 704 976 704
WIRE 704 720 704 672
WIRE 704 720 624 720
WIRE 784 720 704 720
WIRE 1744 720 1744 656
WIRE 624 736 624 720
WIRE 784 736 784 720
WIRE 208 784 208 704
WIRE 368 784 368 704
WIRE 464 784 464 672
WIRE 624 832 624 800
WIRE 624 832 576 832
WIRE 784 832 784 800
WIRE 848 832 784 832
WIRE 976 832 976 704
WIRE 976 832 848 832
WIRE 1024 832 976 832
WIRE 1168 832 1104 832
WIRE 1280 832 1168 832
WIRE 1408 832 1280 832
WIRE 1520 832 1520 656
WIRE 1520 832 1488 832
WIRE 1552 832 1520 832
WIRE 1744 832 1744 784
WIRE 1744 832 1632 832
WIRE 624 848 624 832
WIRE 784 848 784 832
WIRE 2096 848 2096 752
WIRE 1920 864 1920 752
WIRE 848 880 848 832
WIRE 1168 880 1168 832
WIRE 1280 880 1280 832
WIRE 208 912 208 864
WIRE 368 912 368 864
WIRE 368 912 208 912
WIRE 576 912 576 832
WIRE 368 928 368 912
WIRE 624 928 624 912
WIRE 704 928 624 928
WIRE 784 928 784 912
WIRE 784 928 704 928
WIRE 464 976 464 864
WIRE 704 976 704 928
WIRE 704 976 464 976
WIRE 1744 976 1744 832
WIRE 1168 1008 1168 944
WIRE 848 1024 848 944
WIRE 1280 1024 1280 944
WIRE 512 1184 448 1184
WIRE 624 1184 592 1184
WIRE 768 1184 768 1168
WIRE 1056 1184 768 1184
WIRE 1488 1184 1312 1184
WIRE 1568 1184 1488 1184
WIRE 1776 1184 1568 1184
WIRE 624 1200 624 1184
WIRE 1568 1200 1568 1184
WIRE 448 1216 448 1184
WIRE 1568 1280 1568 1264
WIRE 1776 1312 1776 1184
WIRE 768 1328 768 1184
WIRE 1184 1328 1184 1280
WIRE 1312 1328 1184 1328
WIRE 1488 1328 1488 1184
WIRE 1488 1328 1392 1328
WIRE 736 1344 672 1344
WIRE 896 1360 800 1360
WIRE 1024 1360 896 1360
WIRE 1184 1360 1184 1328
WIRE 1184 1360 1104 1360
WIRE 1488 1360 1488 1328
WIRE 384 1376 272 1376
WIRE 512 1376 464 1376
WIRE 624 1376 624 1280
WIRE 624 1376 512 1376
WIRE 736 1376 624 1376
WIRE 896 1376 896 1360
WIRE 512 1440 512 1376
WIRE 624 1440 624 1376
WIRE 272 1456 272 1376
WIRE 672 1456 672 1344
WIRE 896 1456 896 1440
WIRE 896 1456 672 1456
WIRE 1488 1456 1488 1440
WIRE 1488 1456 896 1456
WIRE 1488 1472 1488 1456
WIRE 1776 1488 1776 1392
WIRE 512 1552 512 1520
WIRE 624 1552 624 1504
WIRE 1488 1568 1488 1552
WIRE 272 1600 272 1536
FLAG 368 928 0
FLAG 848 1024 0
FLAG 576 912 0
FLAG 704 672 18Vac
FLAG 1168 1008 0
FLAG 1280 1024 0
FLAG 1744 976 0
FLAG 1920 864 0
FLAG 2096 848 0
FLAG 2096 576 12Vdc
FLAG 272 1600 0
FLAG 512 1552 0
FLAG 624 1552 0
FLAG 448 1216 0
FLAG 768 1392 0
FLAG 768 1168 12Vdc
FLAG 1488 1568 0
FLAG 1568 1280 0
FLAG 1776 1488 0
SYMBOL voltage 208 768 R0
WINDOW 3 -316 141 Left 2
WINDOW 123 0 0 Left 0
WINDOW 39 -316 169 Left 2
SYMATTR Value SINE(0 311 60)
SYMATTR SpiceLine Rser=0.0001
SYMATTR InstName V2
SYMBOL ind2 384 768 M0
SYMATTR InstName L1
SYMATTR Value 900µ
SYMBOL ind2 448 768 R0
SYMATTR InstName L2
SYMATTR Value 3.35µ
SYMBOL diode 640 800 R180
WINDOW 0 24 64 Left 2
WINDOW 3 24 0 Left 2
SYMATTR InstName D1
SYMBOL diode 768 736 R0
SYMATTR InstName D2
SYMBOL diode 800 912 R180
WINDOW 0 24 64 Left 2
WINDOW 3 24 0 Left 2
SYMATTR InstName D4
SYMBOL diode 608 848 R0
SYMATTR InstName D3
SYMBOL polcap 832 880 R0
SYMATTR InstName C4
SYMATTR Value 2200µ
SYMATTR SpiceLine V=25
SYMBOL npn 1376 704 R180
SYMATTR InstName Q1
SYMATTR Value 2N3055
SYMBOL res 1120 816 R90
WINDOW 0 0 56 VBottom 2
WINDOW 3 32 56 VTop 2
SYMATTR InstName R1
SYMATTR Value 55
SYMBOL zener 1184 944 R180
WINDOW 0 24 64 Left 2
WINDOW 3 24 0 Left 2
SYMATTR InstName D5
SYMATTR Value UMZ18K
SYMATTR Description Diode
SYMATTR Type diode
SYMBOL polcap 1264 880 R0
SYMATTR InstName C1
SYMATTR Value 100µ
SYMATTR SpiceLine V=25
SYMBOL res 1504 816 R90
WINDOW 0 0 56 VBottom 2
WINDOW 3 32 56 VTop 2
SYMATTR InstName R2
SYMATTR Value 0.0001
SYMBOL res 1648 816 R90
WINDOW 0 0 56 VBottom 2
WINDOW 3 32 56 VTop 2
SYMATTR InstName R3
SYMATTR Value 140
SYMBOL polcap 1728 720 R0
SYMATTR InstName C2
SYMATTR Value 10µ
SYMATTR SpiceLine V=25
SYMBOL polcap 1904 688 R0
SYMATTR InstName C3
SYMATTR Value 220µ
SYMATTR SpiceLine V=25
SYMBOL cap 2080 688 R0
SYMATTR InstName C5
SYMATTR Value 100n
SYMBOL voltage 272 1440 R0
WINDOW 3 -502 115 Left 2
WINDOW 123 0 0 Left 0
WINDOW 39 0 0 Left 0
SYMATTR InstName V1
SYMATTR Value PULSE(0 5 0 .01m .01m 500u 1m 100)
SYMBOL res 480 1360 R90
WINDOW 0 0 56 VBottom 2
WINDOW 3 32 56 VTop 2
SYMATTR InstName R4
SYMATTR Value 1k
SYMBOL res 496 1424 R0
SYMATTR InstName R5
SYMATTR Value 1k
SYMBOL cap 608 1440 R0
SYMATTR InstName C6
SYMATTR Value 100n
SYMBOL OpAmps\\opamp2 768 1296 R0
SYMATTR InstName U1
SYMATTR Value LM358
SYMBOL cap 880 1376 R0
SYMATTR InstName C7
SYMATTR Value 100p
SYMBOL res 608 1184 R0
SYMATTR InstName R6
SYMATTR Value 1k
SYMBOL voltage 608 1184 R90
WINDOW 0 -32 56 VBottom 2
WINDOW 3 32 56 VTop 2
WINDOW 123 0 0 Left 0
WINDOW 39 0 0 Left 0
SYMATTR InstName V3
SYMATTR Value 5
SYMBOL PowerProducts\\LT317A 1184 1184 R0
SYMATTR InstName U2
SYMBOL res 1120 1344 R90
WINDOW 0 0 56 VBottom 2
WINDOW 3 32 56 VTop 2
SYMATTR InstName R7
SYMATTR Value 1k
SYMBOL res 1408 1312 R90
WINDOW 0 0 56 VBottom 2
WINDOW 3 32 56 VTop 2
SYMATTR InstName R8
SYMATTR Value 10k
SYMBOL res 1472 1344 R0
SYMATTR InstName R9
SYMATTR Value 1k
SYMBOL res 1472 1456 R0
SYMATTR InstName R10
SYMATTR Value 1k
SYMBOL cap 1552 1200 R0
SYMATTR InstName C8
SYMATTR Value 10n
SYMBOL res 1760 1296 R0
SYMATTR InstName R11
SYMATTR Value 10k
TEXT -80 672 Left 2 !K L1 L2 1.
TEXT -880 1576 Left 2 !.lib D:\\Repos\\fonte_bancada_stm32\\hardware\\SpiceModel_LM358.mod
TEXT -882 1596 Left 2 !.tran 1s
