Version 4
SHEET 1 2788 2692
WIRE 1920 576 1312 576
WIRE 2096 576 1920 576
WIRE 1312 608 1312 576
WIRE 1520 656 1376 656
WIRE 1744 656 1520 656
WIRE 704 672 464 672
WIRE 1920 688 1920 576
WIRE 2096 688 2096 576
WIRE 368 704 208 704
WIRE 1312 704 976 704
WIRE 704 720 704 672
WIRE 704 720 624 720
WIRE 784 720 704 720
WIRE 1744 720 1744 656
WIRE 624 736 624 720
WIRE 784 736 784 720
WIRE 208 784 208 704
WIRE 368 784 368 704
WIRE 464 784 464 672
WIRE 624 832 624 800
WIRE 624 832 576 832
WIRE 784 832 784 800
WIRE 848 832 784 832
WIRE 976 832 976 704
WIRE 976 832 848 832
WIRE 1024 832 976 832
WIRE 1168 832 1104 832
WIRE 1280 832 1168 832
WIRE 1408 832 1280 832
WIRE 1520 832 1520 656
WIRE 1520 832 1488 832
WIRE 1552 832 1520 832
WIRE 1744 832 1744 784
WIRE 1744 832 1632 832
WIRE 624 848 624 832
WIRE 784 848 784 832
WIRE 2096 848 2096 752
WIRE 1920 864 1920 752
WIRE 848 880 848 832
WIRE 1168 880 1168 832
WIRE 1280 880 1280 832
WIRE 208 912 208 864
WIRE 368 912 368 864
WIRE 368 912 208 912
WIRE 576 912 576 832
WIRE 368 928 368 912
WIRE 624 928 624 912
WIRE 704 928 624 928
WIRE 784 928 784 912
WIRE 784 928 704 928
WIRE 464 976 464 864
WIRE 704 976 704 928
WIRE 704 976 464 976
WIRE 1744 976 1744 832
WIRE 1168 1008 1168 944
WIRE 848 1024 848 944
WIRE 1280 1024 1280 944
WIRE 576 1248 448 1248
WIRE 704 1248 576 1248
WIRE 1104 1248 960 1248
WIRE 1216 1248 1104 1248
WIRE 1424 1248 1216 1248
WIRE 448 1296 448 1248
WIRE 1216 1296 1216 1248
WIRE 1424 1312 1424 1248
WIRE 448 1376 448 1360
WIRE 1216 1408 1216 1360
WIRE 1424 1408 1424 1392
WIRE 832 1424 832 1344
WIRE 944 1424 832 1424
WIRE 1104 1424 1104 1248
WIRE 1104 1424 1024 1424
WIRE 576 1664 576 1248
WIRE 544 1680 448 1680
WIRE 832 1696 832 1424
WIRE 832 1696 608 1696
WIRE 208 1712 112 1712
WIRE 352 1712 288 1712
WIRE 416 1712 352 1712
WIRE 544 1712 416 1712
WIRE 832 1728 832 1696
WIRE 112 1760 112 1712
WIRE 352 1760 352 1712
WIRE 448 1856 448 1680
WIRE 832 1856 832 1808
WIRE 832 1856 448 1856
WIRE 352 1872 352 1824
WIRE 112 1888 112 1840
WIRE 832 1904 832 1856
WIRE 832 2016 832 1984
WIRE 192 2128 80 2128
WIRE 288 2128 256 2128
WIRE 352 2128 288 2128
WIRE 464 2128 416 2128
WIRE 576 2128 576 1728
WIRE 576 2128 464 2128
WIRE 288 2160 288 2128
WIRE 464 2160 464 2128
WIRE 80 2176 80 2128
WIRE 288 2256 288 2224
WIRE 464 2256 464 2224
WIRE 80 2288 80 2256
FLAG 368 928 0
FLAG 848 1024 0
FLAG 576 912 0
FLAG 704 672 18Vac
FLAG 1168 1008 0
FLAG 1280 1024 0
FLAG 1744 976 0
FLAG 1920 864 0
FLAG 2096 848 0
FLAG 2096 576 12Vdc
FLAG 448 1376 0
FLAG 1216 1408 0
FLAG 1424 1408 0
FLAG 448 1248 12Vdc
FLAG 112 1888 0
FLAG 352 1872 0
FLAG 1424 1248 Vout
FLAG 80 2288 0
FLAG 288 2256 0
FLAG 464 2256 0
FLAG 832 2016 0
FLAG 416 1712 Vdc
SYMBOL voltage 208 768 R0
WINDOW 3 -316 141 Left 2
WINDOW 123 0 0 Left 0
WINDOW 39 -316 169 Left 2
SYMATTR Value SINE(0 311 60)
SYMATTR SpiceLine Rser=0.0001
SYMATTR InstName V2
SYMBOL ind2 384 768 M0
SYMATTR InstName L1
SYMATTR Value 900µ
SYMBOL ind2 448 768 R0
SYMATTR InstName L2
SYMATTR Value 3.35µ
SYMBOL diode 640 800 R180
WINDOW 0 24 64 Left 2
WINDOW 3 24 0 Left 2
SYMATTR InstName D1
SYMBOL diode 768 736 R0
SYMATTR InstName D2
SYMBOL diode 800 912 R180
WINDOW 0 24 64 Left 2
WINDOW 3 24 0 Left 2
SYMATTR InstName D4
SYMBOL diode 608 848 R0
SYMATTR InstName D3
SYMBOL polcap 832 880 R0
SYMATTR InstName C4
SYMATTR Value 2200µ
SYMATTR SpiceLine V=25
SYMBOL npn 1376 704 R180
SYMATTR InstName Q1
SYMATTR Value 2N3055
SYMBOL res 1120 816 R90
WINDOW 0 0 56 VBottom 2
WINDOW 3 32 56 VTop 2
SYMATTR InstName R1
SYMATTR Value 55
SYMBOL zener 1184 944 R180
WINDOW 0 24 64 Left 2
WINDOW 3 24 0 Left 2
SYMATTR InstName D5
SYMATTR Value UMZ18K
SYMATTR Description Diode
SYMATTR Type diode
SYMBOL polcap 1264 880 R0
SYMATTR InstName C1
SYMATTR Value 100µ
SYMATTR SpiceLine V=25
SYMBOL res 1504 816 R90
WINDOW 0 0 56 VBottom 2
WINDOW 3 32 56 VTop 2
SYMATTR InstName R2
SYMATTR Value 0.0001
SYMBOL res 1648 816 R90
WINDOW 0 0 56 VBottom 2
WINDOW 3 32 56 VTop 2
SYMATTR InstName R3
SYMATTR Value 140
SYMBOL polcap 1728 720 R0
SYMATTR InstName C2
SYMATTR Value 10µ
SYMATTR SpiceLine V=25
SYMBOL polcap 1904 688 R0
SYMATTR InstName C3
SYMATTR Value 220µ
SYMATTR SpiceLine V=25
SYMBOL cap 2080 688 R0
SYMATTR InstName C5
SYMATTR Value 100n
SYMBOL PowerProducts\\LT317A 832 1248 R0
SYMATTR InstName U2
SYMBOL res 1040 1408 R90
WINDOW 0 0 56 VBottom 2
WINDOW 3 32 56 VTop 2
SYMATTR InstName R7
SYMATTR Value 150
SYMBOL res 1408 1296 R0
SYMATTR InstName R8
SYMATTR Value 10k
SYMBOL polcap 1200 1296 R0
SYMATTR InstName C10
SYMATTR Value 1µ
SYMATTR SpiceLine V=16
SYMBOL cap 432 1296 R0
SYMATTR InstName C6
SYMATTR Value 0.1µ
SYMATTR SpiceLine V=16
SYMBOL voltage 112 1744 R0
WINDOW 3 -747 163 Left 2
WINDOW 123 0 0 Left 0
WINDOW 39 0 0 Left 0
SYMATTR InstName V1
SYMATTR Value PULSE(0 3.3 0 .01m .01m 1000u 1000u 1000)
SYMBOL res 304 1696 R90
WINDOW 0 0 56 VBottom 2
WINDOW 3 32 56 VTop 2
SYMATTR InstName R4
SYMATTR Value 100k
SYMBOL cap 336 1760 R0
SYMATTR InstName C7
SYMATTR Value 1µ
SYMBOL OpAmps\\opamp2 576 1632 R0
SYMATTR InstName U1
SYMATTR Value TL07XH_TL08XH
SYMBOL voltage 80 2160 R0
WINDOW 3 -766 150 Left 2
WINDOW 123 0 0 Left 0
WINDOW 39 0 0 Left 0
SYMATTR InstName V3
SYMATTR Value PULSE(0 3.3 0 .01m .01m 500u 1000u 1000)
SYMBOL polcap 192 2144 R270
WINDOW 0 32 32 VTop 2
WINDOW 3 0 32 VBottom 2
SYMATTR InstName C8
SYMATTR Value 100µ
SYMATTR SpiceLine V=16
SYMBOL diode 272 2160 R0
SYMATTR InstName D6
SYMATTR Value 1N4148
SYMBOL diode 416 2112 R90
WINDOW 0 0 32 VBottom 2
WINDOW 3 32 32 VTop 2
SYMATTR InstName D7
SYMATTR Value 1N4148
SYMBOL polcap 480 2224 R180
WINDOW 0 24 57 Left 2
WINDOW 3 24 8 Left 2
SYMATTR InstName C9
SYMATTR Value 100µ
SYMATTR SpiceLine V=16
SYMBOL res 816 1712 R0
SYMATTR InstName R5
SYMATTR Value 2k
SYMBOL res 816 1888 R0
SYMATTR InstName R6
SYMATTR Value 11k
TEXT -80 672 Left 2 !K L1 L2 1.
TEXT -880 1600 Left 2 !.tran 1s
TEXT -880 1688 Left 2 !.include tl07xh_tl08xh.lib
